51
Lattice="7.351477842562 0.0 0.0 0.0 -11.623707075379 0.0 0.0 1.162370707538 -20.922672735682" Properties=species:S:1:pos:R:3:tags:I:1:initial_magmoms:R:1:forces:R:3 energy=-78278.6556153883 pbc="T T T"
Cu       3.69073959      -4.62989681      -9.00515031        1       0.00000000      -0.00025250       0.01313211      -0.01381776
Cu       0.01686422      -1.20389566      -7.93409296        1       0.00000000      -0.00316334      -0.00382453       0.01351620
Cu       3.68276321      -2.35333845     -10.19737665        1       0.00000000       0.00592062       0.00294130      -0.01069146
Cu       1.83822553      -2.91801269      -8.45424201        1       0.00000000       0.00315236       0.00651356       0.00498401
Cu       1.83383830      -5.23538179      -7.41860854        1       0.00000000      -0.00239590       0.00241489       0.02115997
Cu       1.83771902      -0.61975796      -9.64500316        1       0.00000000       0.00948287       0.00458812       0.00069672
Cu       3.67544600      -3.50024038     -12.50360565        2       0.00000000       0.00000000       0.00000000       0.00000000
Cu       3.67540148      -0.01100329     -11.36170276        2       0.00000000       0.00000000       0.00000000       0.00000000
Cu       3.67571163      -1.16651536     -13.58947883        2       0.00000000       0.00000000       0.00000000       0.00000000
Cu       1.83767699      -1.77552060     -11.95874462        2       0.00000000       0.00000000       0.00000000       0.00000000
Cu       1.83798197      -4.08189250     -10.76591887        2       0.00000000       0.00000000       0.00000000       0.00000000
Cu       1.83830938       0.56032890     -13.05379616        2       0.00000000       0.00000000       0.00000000       0.00000000
Cu       7.33191032      -4.62922050      -9.00258509        1       0.00000000       0.00372559      -0.01752431      -0.00864580
Cu       3.65767955      -1.19887105      -7.93801350        1       0.00000000       0.00769323      -0.01677188       0.00027568
Cu       7.34429069      -2.35305036     -10.19719852        1       0.00000000      -0.00362670      -0.00935601      -0.01518419
Cu       5.51253845      -2.90354364      -8.42703592        1       0.00000000      -0.00431567       0.01311461       0.02263490
Cu       5.50566383      -5.22722932      -7.05124696        1       0.00000000      -0.01245041      -0.01328327       0.02045607
Cu       5.51364457      -0.61776386      -9.63617812        1       0.00000000      -0.01207383      -0.00565886      -0.00163556
Cu       7.35179035      -3.49985449     -12.50469587        2       0.00000000       0.00000000       0.00000000       0.00000000
Cu       7.35173370      -0.00945193     -11.35874557        2       0.00000000       0.00000000       0.00000000       0.00000000
Cu       7.35083307      -1.16676016     -13.58836887        2       0.00000000       0.00000000       0.00000000       0.00000000
Cu       5.51299220      -1.77571634     -11.95850546        2       0.00000000       0.00000000       0.00000000       0.00000000
Cu       5.51405004      -4.08226619     -10.76659867        2       0.00000000       0.00000000       0.00000000       0.00000000
Cu       5.51339045       0.55977270     -13.05392652        2       0.00000000       0.00000000       0.00000000       0.00000000
Cu       3.68392479     -10.46808029      -9.00940581        1       0.00000000      -0.00587850      -0.00072104      -0.01441178
Cu       0.08128406      -6.99947421      -7.81899577        1       0.00000000      -0.02370996       0.00740497      -0.02249072
Cu       3.68592850      -8.15688425     -10.19033671        1       0.00000000      -0.00963171      -0.01857177      -0.01879779
Cu       1.83766015      -8.74488116      -8.44891745        1       0.00000000      -0.01097307      -0.01016323      -0.03091152
Cu       1.83838165     -11.10727767      -7.42852585        1       0.00000000      -0.00429815      -0.00104727      -0.00472809
Cu       1.83785470      -6.43446164      -9.61142391        1       0.00000000      -0.02491203      -0.00598082      -0.02455469
Cu       3.67589544      -9.31634942     -12.50529088        2       0.00000000       0.00000000       0.00000000       0.00000000
Cu       3.67560025      -5.82222221     -11.36239487        2       0.00000000       0.00000000       0.00000000       0.00000000
Cu       3.67616277      -6.97868571     -13.58929256        2       0.00000000       0.00000000       0.00000000       0.00000000
Cu       1.83835144      -7.58438838     -11.95844126        2       0.00000000       0.00000000       0.00000000       0.00000000
Cu       1.83781183      -9.89160157     -10.76692334        2       0.00000000       0.00000000       0.00000000       0.00000000
Cu       1.83797896      -5.25435173     -13.05522861        2       0.00000000       0.00000000       0.00000000       0.00000000
Cu       7.34286439     -10.46930225      -9.00742835        1       0.00000000       0.00928914       0.02129375      -0.00867361
Cu       3.59759499      -6.99908073      -7.82142210        1       0.00000000       0.00385308       0.00213794       0.00247014
Cu       7.34004820      -8.15699436     -10.18975753        1       0.00000000       0.01264455      -0.00111107      -0.00684416
Cu       5.51376591      -8.79474538      -8.36257476        1       0.00000000       0.01892447       0.00139672      -0.02480566
Cu       5.51145797     -11.16579790      -7.40993734        1       0.00000000       0.00827917      -0.00622580      -0.00950101
Cu       5.51152467      -6.38116719      -9.58036261        1       0.00000000       0.03329270      -0.01019545       0.00228795
Cu       7.35123445      -9.31634537     -12.50618378        2       0.00000000       0.00000000       0.00000000       0.00000000
Cu       7.35082940      -5.82147441     -11.35889478        2       0.00000000       0.00000000       0.00000000       0.00000000
Cu       7.35152115      -6.97833626     -13.58708898        2       0.00000000       0.00000000       0.00000000       0.00000000
Cu       5.51257104      -7.58379162     -11.95804900        2       0.00000000       0.00000000       0.00000000       0.00000000
Cu       5.51384986      -9.89126227     -10.76492693        2       0.00000000       0.00000000       0.00000000       0.00000000
Cu       5.51301838      -5.25439768     -13.05486228        2       0.00000000       0.00000000       0.00000000       0.00000000
O        5.31939439      -3.25217927      -4.81830203        0       0.00000000      -0.02250243       0.00633359       0.01313888
C        5.41095541      -3.93977716      -5.73014934        0       0.00000000       0.01284878      -0.01902536      -0.00437430
C        5.51634229      -7.04111766      -7.58206051        0       0.00000000       0.00004738      -0.00474854       0.00329407
